Localizador/34Bus/ieee34-1_VLN.Txt

SYMMETRICAL COMPONENT VOLTAGES BY BUS (for 3-phase buses)

Bus        Mag:   V1 (kV)    p.u.     V2 (kV)   %V2/V1    V0 (kV)    %V0/V1

sourcebus      68.8      1.727     0.0621    0.09027 4.535E-009 6.592E-009
800           14.89      1.036    0.01382    0.09284 0.0003828   0.00257
802           14.36      0.999    0.02065     0.1438   0.06449    0.4491
806           14.01     0.9748    0.03641     0.2598    0.1093    0.7797
808           13.49     0.9385    0.06731     0.4989    0.1815     1.345
810           13.48     0.9378          0          0         0         0
812           12.56      0.874     0.1315      1.047    0.3031     2.412
814           10.15     0.7061     0.3001      2.957    0.6253      6.16
814r          11.09     0.7716     0.3321      2.994    0.6924     6.242
850            10.9     0.7585     0.3459      3.172    0.7139     6.547
816           10.72     0.7454     0.3596      3.356    0.7354     6.863
818           9.583     0.6666          0          0         0         0
824           10.55     0.7336     0.3545      3.361    0.7303     6.924
820           9.494     0.6604          0          0         0         0
822           9.454     0.6576          0          0         0         0
826            10.9     0.7582          0          0         0         0
828           10.38     0.7223     0.3532      3.401    0.7246     6.979
830           10.22      0.711     0.3517      3.441    0.7193     7.038
854           10.06        0.7     0.3489      3.467    0.7139     7.094
832            10.7     0.7441     0.3784      3.537    0.7749     7.245
858           10.58     0.7358     0.3771      3.565    0.7704     7.283
834           10.46     0.7278      0.376      3.594     0.766     7.321
860           10.42      0.725     0.3773       3.62    0.7668     7.357
842            10.4     0.7232     0.3703      3.561    0.7609     7.318
836            10.4     0.7237     0.3737      3.592     0.769     7.391
840            10.4     0.7233     0.3724      3.582    0.7685     7.391
862            10.4     0.7234     0.3708      3.565    0.7715     7.419
844           10.33     0.7187      0.364      3.523    0.7553      7.31
846           10.32     0.7177     0.3599      3.488    0.7563      7.33
848           10.31      0.717     0.3585      3.478    0.7577     7.351
852r          10.84      0.754     0.3803      3.508    0.7793      7.19
856           10.39     0.7225          0          0         0         0
852           9.906     0.6891     0.3466      3.499    0.7086     7.153
864           9.575     0.6661          0          0         0         0
838           10.66     0.7418          0          0         0         0
888           1.042     0.4339    0.03482      3.341    0.1295     12.42
890          0.9309     0.3876    0.03369      3.619    0.1323     14.21
